#!/sbin/sh
##########################################################################################
#
# Magisk Module Template Install Script
# by topjohnwu
#
##########################################################################################

# Detect whether in boot mode
ps | grep zygote | grep -v grep >/dev/null && BOOTMODE=true || BOOTMODE=false
$BOOTMODE || ps -A 2>/dev/null | grep zygote | grep -v grep >/dev/null && BOOTMODE=true

TMPDIR=/dev/tmp
INSTALLER=$TMPDIR/install
MAGISKBIN=/data/adb/magisk

# Default permissions
umask 022

# Initial cleanup
rm -rf $TMPDIR 2>/dev/null
mkdir -p $INSTALLER

# echo before loading util_functions
ui_print() { echo "$1"; }

require_new_magisk() {
  ui_print "*******************************"
  ui_print " Please install Magisk v15.0+! "
  ui_print "*******************************"
  exit 1
}

##########################################################################################
# Environment
##########################################################################################

OUTFD=$2
ZIP=$3

mount /data 2>/dev/null

# Utility functions must exist
[ -f $MAGISKBIN/util_functions.sh ] || require_new_magisk
# Load utility fuctions
. $MAGISKBIN/util_functions.sh

# We can't alter magisk image live, use alternative image if required
$BOOTMODE && IMG=/data/adb/magisk_merge.img
# Always mount under tmp
MOUNTPATH=$TMPDIR/magisk_img

# Preperation for flashable zips
get_outfd

# Mount partitions
mount_partitions

# Detect version and architecture
api_level_arch_detect

# You can get the Android API version from $API, the CPU architecture from $ARCH
# Useful if you are creating Android version / platform dependent mods

# Setup busybox and binaries
$BOOTMODE && boot_actions || recovery_actions

##########################################################################################
# Preparation
##########################################################################################

# Extract common files
unzip -o "$ZIP" module.prop config.sh 'common/*' -d $INSTALLER >&2

[ ! -f $INSTALLER/config.sh ] && abort "! Unable to extract zip file!"
# Load configurations
. $INSTALLER/config.sh

# Check the installed magisk version
MIN_VER=`grep_prop minMagisk $INSTALLER/module.prop`
[ ! -z $MAGISK_VER_CODE -a $MAGISK_VER_CODE -ge $MIN_VER ] || require_new_magisk
MODID=`grep_prop id $INSTALLER/module.prop`
MODPATH=$MOUNTPATH/$MODID

# Print mod name
print_modname

# Please leave this message in your flashable zip for credits :)
ui_print "******************************"
ui_print "Powered by Magisk (@topjohnwu)"
ui_print "******************************"

##########################################################################################
# Install
##########################################################################################

# Get the variable reqSizeM. Use your own method to determine reqSizeM if needed
request_zip_size_check "$ZIP"

# This function will mount $IMG to $MOUNTPATH, and resize the image based on $reqSizeM
mount_magisk_img

# Create mod paths
rm -rf $MODPATH 2>/dev/null
mkdir -p $MODPATH

# Extract files to system. Use your own method if needed
ui_print "- Extracting module files"
unzip -o "$ZIP" 'system/*' -d $MODPATH >&2

# Remove placeholder
rm -f $MODPATH/system/placeholder 2>/dev/null

# Handle replace folders
for TARGET in $REPLACE; do
  mktouch $MODPATH$TARGET/.replace
done

# Auto Mount
$AUTOMOUNT && touch $MODPATH/auto_mount

# prop files
$PROPFILE && cp -af $INSTALLER/common/system.prop $MODPATH/system.prop

# Module info
cp -af $INSTALLER/module.prop $MODPATH/module.prop
if $BOOTMODE; then
  # Update info for Magisk Manager
  mktouch /sbin/.core/img/$MODID/update
  cp -af $INSTALLER/module.prop /sbin/.core/img/$MODID/module.prop
fi

# post-fs-data mode scripts
$POSTFSDATA && cp -af $INSTALLER/common/post-fs-data.sh $MODPATH/post-fs-data.sh

# service mode scripts
$LATESTARTSERVICE && cp -af $INSTALLER/common/service.sh $MODPATH/service.sh

# migrating fonts.xml
ui_print "- Migrating fonts.xml"
[[ -d /sbin/.core/mirror ]] && MIRRORPATH=/sbin/.core/mirror || unset MIRRORPATH
FILE=fonts.xml
FILEPATH=/system/etc/
if [ -f $MIRRORPATH$FILEPATH$FILE ]; then
  mkdir -p $MODPATH$FILEPATH
  cp -af $MIRRORPATH$FILEPATH$FILE $MODPATH$FILEPATH$FILE
  sed -i '
  /<family name=\"sans-serif\">/,/<\/family>/ {
    /<\/family>/! d
    /<\/family>/ s/.*/\
      <family name="sans-serif">\
      <font weight="100" style="normal" index="0">Roboto-Thin.ttf<\/font>\
      <font weight="300" style="normal" index="0">Roboto-Light.ttf<\/font>\
      <font weight="400" style="normal" index="0">Roboto-Regular.ttf<\/font>\
      <font weight="500" style="normal" index="0">Roboto-Medium.ttf<\/font>\
      <font weight="700" style="normal" index="0">Roboto-Bold.ttf<\/font>\
      <font weight="900" style="normal" index="0">Roboto-Black.ttf<\/font>\
      <font weight="100" style="italic">Roboto-ThinItalic.ttf<\/font>\
      <font weight="300" style="italic">Roboto-LightItalic.ttf<\/font>\
      <font weight="400" style="italic">Roboto-Italic.ttf<\/font>\
      <font weight="500" style="italic">Roboto-MediumItalic.ttf<\/font>\
      <font weight="900" style="italic">Roboto-BlackItalic.ttf<\/font>\
      <font weight="700" style="italic">Roboto-BoldItalic.ttf<\/font>\
      <\/family>/
  }

  /<family lang=\"zh-Hans\">/,/<\/family>/ {
    /<\/family>/! d
    /<\/family>/ s/.*/\
      <family lang="zh-Hans">\
      <font weight="100" style="normal" index="3">Roboto-Thin.ttf<\/font>\
      <font weight="300" style="normal" index="3">Roboto-Light.ttf<\/font>\
      <font weight="400" style="normal" index="3">Roboto-Regular.ttf<\/font>\
      <font weight="500" style="normal" index="3">Roboto-Medium.ttf<\/font>\
      <font weight="700" style="normal" index="3">Roboto-Bold.ttf<\/font>\
      <font weight="900" style="normal" index="3">Roboto-Black.ttf<\/font>\
      <\/family>/
  }
  /<family lang=\"zh-Hant\">/,/<\/family>/ {
    /<\/family>/! d
    /<\/family>/ s/.*/\
      <family lang="zh-Hant">\
      <font weight="100" style="normal" index="4">Roboto-Thin.ttf<\/font>\
      <font weight="300" style="normal" index="4">Roboto-Light.ttf<\/font>\
      <font weight="400" style="normal" index="4">Roboto-Regular.ttf<\/font>\
      <font weight="500" style="normal" index="4">Roboto-Medium.ttf<\/font>\
      <font weight="700" style="normal" index="4">Roboto-Bold.ttf<\/font>\
      <font weight="900" style="normal" index="4">Roboto-Black.ttf<\/font>\
      <\/family>/
  }
  /<family lang=\"zh-Hant zh-Bopo\">/,/<\/family>/ {
    /<\/family>/! d
    /<\/family>/ s/.*/\
      <family lang="zh-Hant zh-Bopo">\
      <font weight="100" style="normal" index="4">Roboto-Thin.ttf<\/font>\
      <font weight="300" style="normal" index="4">Roboto-Light.ttf<\/font>\
      <font weight="400" style="normal" index="4">Roboto-Regular.ttf<\/font>\
      <font weight="500" style="normal" index="4">Roboto-Medium.ttf<\/font>\
      <font weight="700" style="normal" index="4">Roboto-Bold.ttf<\/font>\
      <font weight="900" style="normal" index="4">Roboto-Black.ttf<\/font>\
      <\/family>/
  }
  /<family lang=\"ja\">/,/<\/family>/ {
    /<\/family>/! d
    /<\/family>/ s/.*/\
      <family lang="ja">\
      <font weight="100" style="normal" index="1">Roboto-Thin.ttf<\/font>\
      <font weight="300" style="normal" index="1">Roboto-Light.ttf<\/font>\
      <font weight="400" style="normal" index="1">Roboto-Regular.ttf<\/font>\
      <font weight="500" style="normal" index="1">Roboto-Medium.ttf<\/font>\
      <font weight="700" style="normal" index="1">Roboto-Bold.ttf<\/font>\
      <font weight="900" style="normal" index="1">Roboto-Black.ttf<\/font>\
      <\/family>/
  }
  /<family lang=\"ko\">/,/<\/family>/ {
    /<\/family>/! d
    /<\/family>/ s/.*/\
      <family lang="ko">\
      <font weight="100" style="normal" index="2">Roboto-Thin.ttf<\/font>\
      <font weight="300" style="normal" index="2">Roboto-Light.ttf<\/font>\
      <font weight="400" style="normal" index="2">Roboto-Regular.ttf<\/font>\
      <font weight="500" style="normal" index="2">Roboto-Medium.ttf<\/font>\
      <font weight="700" style="normal" index="2">Roboto-Bold.ttf<\/font>\
      <font weight="900" style="normal" index="2">Roboto-Black.ttf<\/font>\
      <\/family>/
  }
  /^$/d
  ' $MODPATH$FILEPATH$FILE
else
  ui_print "- Migration FAILED. Nothing have done to your system."
fi

ui_print "- Setting permissions"
set_permissions

##########################################################################################
# Finalizing
##########################################################################################

# Unmount magisk image and shrink if possible
unmount_magisk_img

$BOOTMODE || recovery_cleanup
rm -rf $TMPDIR

ui_print "- Done"
exit 0
